449381
  -OEChem-03182022573D

 44 44  0     1  0  0  0  0  0999 V2000
    0.9390   -0.7823   -0.4939 O   0  0  0  0  0  0  0  0  0  0  0  0
   -4.6011   -0.3075   -0.6444 O   0  0  0  0  0  0  0  0  0  0  0  0
   -3.8522   -1.9576    0.7508 O   0  0  0  0  0  0  0  0  0  0  0  0
    2.4908    1.5700   -1.5284 O   0  0  0  0  0  0  0  0  0  0  0  0
    1.1842    2.0698    0.3316 N   0  0  0  0  0  0  0  0  0  0  0  0
   -1.3416    3.4813    0.0226 N   0  0  0  0  0  0  0  0  0  0  0  0
   -0.0219    1.3833   -0.0860 C   0  0  2  0  0  0  0  0  0  0  0  0
   -1.2769    2.0863    0.4645 C   0  0  2  0  0  0  0  0  0  0  0  0
    0.0339   -0.0897    0.3677 C   0  0  1  0  0  0  0  0  0  0  0  0
   -2.5540    1.3596    0.0094 C   0  0  0  0  0  0  0  0  0  0  0  0
   -1.2992   -0.7845    0.3348 C   0  0  0  0  0  0  0  0  0  0  0  0
   -2.4542   -0.1271    0.1628 C   0  0  0  0  0  0  0  0  0  0  0  0
    1.5880   -1.8443    0.1874 C   0  0  0  0  0  0  0  0  0  0  0  0
    2.8598   -1.2954    0.8436 C   0  0  0  0  0  0  0  0  0  0  0  0
    1.9290   -2.9656   -0.8012 C   0  0  0  0  0  0  0  0  0  0  0  0
   -3.6895   -0.9150    0.1432 C   0  0  0  0  0  0  0  0  0  0  0  0
    2.3362    2.1007   -0.4316 C   0  0  0  0  0  0  0  0  0  0  0  0
    3.6004   -2.3565    1.6475 C   0  0  0  0  0  0  0  0  0  0  0  0
    0.7006   -3.5280   -1.5041 C   0  0  0  0  0  0  0  0  0  0  0  0
    3.4287    2.9025    0.2237 C   0  0  0  0  0  0  0  0  0  0  0  0
   -0.0443    1.4132   -1.1852 H   0  0  0  0  0  0  0  0  0  0  0  0
   -1.2361    2.0835    1.5625 H   0  0  0  0  0  0  0  0  0  0  0  0
    0.3908   -0.1144    1.4069 H   0  0  0  0  0  0  0  0  0  0  0  0
   -2.7569    1.5846   -1.0466 H   0  0  0  0  0  0  0  0  0  0  0  0
   -3.4024    1.7433    0.5910 H   0  0  0  0  0  0  0  0  0  0  0  0
   -1.2999   -1.8635    0.4652 H   0  0  0  0  0  0  0  0  0  0  0  0
    0.9387   -2.2759    0.9609 H   0  0  0  0  0  0  0  0  0  0  0  0
    1.1927    2.4995    1.2524 H   0  0  0  0  0  0  0  0  0  0  0  0
   -0.5164    3.9812    0.3508 H   0  0  0  0  0  0  0  0  0  0  0  0
   -2.1461    3.9391    0.4491 H   0  0  0  0  0  0  0  0  0  0  0  0
    2.6088   -0.4640    1.5119 H   0  0  0  0  0  0  0  0  0  0  0  0
    3.5276   -0.8711    0.0837 H   0  0  0  0  0  0  0  0  0  0  0  0
    2.6128   -2.5851   -1.5698 H   0  0  0  0  0  0  0  0  0  0  0  0
    2.4304   -3.7956   -0.2933 H   0  0  0  0  0  0  0  0  0  0  0  0
    2.9310   -2.8627    2.3500 H   0  0  0  0  0  0  0  0  0  0  0  0
    4.0676   -3.1056    1.0022 H   0  0  0  0  0  0  0  0  0  0  0  0
    4.4026   -1.8875    2.2271 H   0  0  0  0  0  0  0  0  0  0  0  0
    0.1958   -2.7611   -2.0999 H   0  0  0  0  0  0  0  0  0  0  0  0
    0.9904   -4.3397   -2.1789 H   0  0  0  0  0  0  0  0  0  0  0  0
   -0.0151   -3.9286   -0.7793 H   0  0  0  0  0  0  0  0  0  0  0  0
    4.3382    2.8509   -0.3812 H   0  0  0  0  0  0  0  0  0  0  0  0
    3.1172    3.9469    0.3128 H   0  0  0  0  0  0  0  0  0  0  0  0
    3.6427    2.4984    1.2173 H   0  0  0  0  0  0  0  0  0  0  0  0
   -5.4452   -0.8058   -0.6837 H   0  0  0  0  0  0  0  0  0  0  0  0
  1  9  1  0  0  0  0
  1 13  1  0  0  0  0
  2 16  1  0  0  0  0
  2 44  1  0  0  0  0
  3 16  2  0  0  0  0
  4 17  2  0  0  0  0
  5  7  1  0  0  0  0
  5 17  1  0  0  0  0
  5 28  1  0  0  0  0
  6  8  1  0  0  0  0
  6 29  1  0  0  0  0
  6 30  1  0  0  0  0
  7  8  1  0  0  0  0
  7  9  1  0  0  0  0
  7 21  1  0  0  0  0
  8 10  1  0  0  0  0
  8 22  1  0  0  0  0
  9 11  1  0  0  0  0
  9 23  1  0  0  0  0
 10 12  1  0  0  0  0
 10 24  1  0  0  0  0
 10 25  1  0  0  0  0
 11 12  2  0  0  0  0
 11 26  1  0  0  0  0
 12 16  1  0  0  0  0
 13 14  1  0  0  0  0
 13 15  1  0  0  0  0
 13 27  1  0  0  0  0
 14 18  1  0  0  0  0
 14 31  1  0  0  0  0
 14 32  1  0  0  0  0
 15 19  1  0  0  0  0
 15 33  1  0  0  0  0
 15 34  1  0  0  0  0
 17 20  1  0  0  0  0
 18 35  1  0  0  0  0
 18 36  1  0  0  0  0
 18 37  1  0  0  0  0
 19 38  1  0  0  0  0
 19 39  1  0  0  0  0
 19 40  1  0  0  0  0
 20 41  1  0  0  0  0
 20 42  1  0  0  0  0
 20 43  1  0  0  0  0
M  END
> <PUBCHEM_COMPOUND_CID>
449381

> <PUBCHEM_CONFORMER_RMSD>
0.8

> <PUBCHEM_CONFORMER_DIVERSEORDER>
2
10
25
16
24
20
21
11
4
30
29
18
19
26
13
28
17
22
5
9
27
23
8
12
7
15
3
14
6
1

> <PUBCHEM_MMFF94_PARTIAL_CHARGES>
21
1 -0.56
10 0.14
11 -0.29
12 -0.12
13 0.28
16 0.71
17 0.57
2 -0.65
20 0.06
26 0.15
28 0.37
29 0.36
3 -0.57
30 0.36
4 -0.57
44 0.5
5 -0.73
6 -0.99
7 0.3
8 0.27
9 0.42

> <PUBCHEM_EFFECTIVE_ROTOR_COUNT>
7.8

> <PUBCHEM_PHARMACOPHORE_FEATURES>
11
1 1 acceptor
1 18 hydrophobe
1 19 hydrophobe
1 2 acceptor
1 3 acceptor
1 4 acceptor
1 5 donor
1 6 cation
1 6 donor
3 2 3 16 anion
6 7 8 9 10 11 12 rings

> <PUBCHEM_HEAVY_ATOM_COUNT>
20

> <PUBCHEM_ATOM_DEF_STEREO_COUNT>
3

> <PUBCHEM_ATOM_UDEF_STEREO_COUNT>
0

> <PUBCHEM_BOND_DEF_STEREO_COUNT>
0

> <PUBCHEM_BOND_UDEF_STEREO_COUNT>
0

> <PUBCHEM_ISOTOPIC_ATOM_COUNT>
0

> <PUBCHEM_COMPONENT_COUNT>
1

> <PUBCHEM_CACTVS_TAUTO_COUNT>
2

> <PUBCHEM_CONFORMER_ID>
0006DB6500000002

> <PUBCHEM_MMFF94_ENERGY>
26.8657

> <PUBCHEM_FEATURE_SELFOVERLAP>
55.877

> <PUBCHEM_SHAPE_FINGERPRINT>
10967382 1 18266743669461237841
1100329 8 18121216476854696681
11578080 2 17023731313416704430
116883 192 18268147544389465661
12553582 1 18267600026180094979
12592029 89 18118690056425299872
13083527 12 18337657664016317578
13140716 1 18336551521465530105
14178342 30 18054225427690753394
14181834 199 18187371991189762460
14790565 3 17978806914966349313
16945 1 18195255407909253017
19591789 44 17546171161051134243
20028762 73 17265550509186760287
20600515 1 17832978352708011712
20645476 183 16883583442519894860
20645477 70 18410290333344162071
20905425 154 18410864256427224356
21421861 104 18337409153145738753
21501502 16 18409736123148119145
21524375 3 18193285315211450532
21650355 55 17758101615003851018
23184049 29 18264491693627785489
2334 1 18410296938776808585
23366157 5 18041002825762650248
23402539 116 17983574392793675508
23419403 2 17824514466626311062
23557571 272 17910109114713494594
23558518 356 18260834748129746457
23559900 14 18268707221155963562
2748010 2 17400083470806227577
3060560 45 18124595546632264493
43471831 8 18263645224478083928
5104073 3 18335712641765231305
5902787 121 18189050902269174938
59554788 191 18265038150811688830
59755656 215 18260826020624156540
7364860 26 18412549794935982372
81228 2 17763751983393797651
81539 233 18116432729131129028
90316 7 17539112970990032272
9709674 26 17695901138176993263
9925002 15 17840836850027589054

> <PUBCHEM_SHAPE_MULTIPOLES>
378.15
6.46
4.48
1.12
3.68
0.75
0.08
-1.98
-1.16
-3.01
0.87
-0.91
-0.69
-0.4

> <PUBCHEM_SHAPE_SELFOVERLAP>
753.805

> <PUBCHEM_SHAPE_VOLUME>
222.1

> <PUBCHEM_COORDINATE_TYPE>
2
5
10

$$$$
